<?xml version="1.0" encoding="UTF-8"?>

<!-- generated on 2023-01-03 12:48:19.591866 by osmWebWizard.py v1_15_0+0002-e6790248698
<configuration>
    <additional-files value="C:\Users\gueye\Sumo\2023-01-03-12-47-57\osm_stops.add.xml,C:\Users\gueye\Sumo\2023-01-03-12-47-57\osm_pt.rou.xml"/>
    <end value="3600"/>
    <fringe-factor value="1"/>
    <insertion-density value="20.0"/>
    <net-file value="C:\Users\gueye\Sumo\2023-01-03-12-47-57\osm.net.xml.gz"/>
    <persontrips value="True"/>
    <route-file value="C:\Users\gueye\Sumo\2023-01-03-12-47-57\osm.pedestrian.rou.xml"/>
    <trip-attributes value="modes=&quot;public&quot;"/>
    <output-trip-file value="C:\Users\gueye\Sumo\2023-01-03-12-47-57\osm.pedestrian.trips.xml"/>
    <prefix value="ped"/>
    <vehicle-class value="pedestrian"/>
    <persontrip.walk-opposite-factor value="0.8"/>
</configuration>
-->

<routes xmlns:xsi="http://www.w3.org/2001/XMLSchema-instance" xsi:noNamespaceSchemaLocation="http://sumo.dlr.de/xsd/routes_file.xsd">
    <vType id="ped_pedestrian" vClass="pedestrian"/>
    <person id="ped0" depart="0.00" type="ped_pedestrian">
        <personTrip from="375901774#2" to="-114667396#0" modes="public"/>
    </person>
    <person id="ped1" depart="2.58" type="ped_pedestrian">
        <personTrip from="1097921389" to="1079045034#1" modes="public"/>
    </person>
    <person id="ped2" depart="5.17" type="ped_pedestrian">
        <personTrip from="465376258#1" to="424344303" modes="public"/>
    </person>
    <person id="ped3" depart="7.75" type="ped_pedestrian">
        <personTrip from="785281156" to="-23852051" modes="public"/>
    </person>
    <person id="ped4" depart="10.34" type="ped_pedestrian">
        <personTrip from="181587284#0" to="-132460631#0" modes="public"/>
    </person>
    <person id="ped5" depart="12.92" type="ped_pedestrian">
        <personTrip from="1077812496#1" to="24913519#1" modes="public"/>
    </person>
    <person id="ped6" depart="15.51" type="ped_pedestrian">
        <personTrip from="-11483007#2" to="104991252#1" modes="public"/>
    </person>
    <person id="ped7" depart="18.09" type="ped_pedestrian">
        <personTrip from="377110621#2" to="274513581#0" modes="public"/>
    </person>
    <person id="ped8" depart="20.68" type="ped_pedestrian">
        <personTrip from="1079045023#1" to="330832908" modes="public"/>
    </person>
    <person id="ped9" depart="23.26" type="ped_pedestrian">
        <personTrip from="561816966" to="-1091249702#1" modes="public"/>
    </person>
    <person id="ped10" depart="25.85" type="ped_pedestrian">
        <personTrip from="557076776#0" to="437500499#1" modes="public"/>
    </person>
    <person id="ped11" depart="28.43" type="ped_pedestrian">
        <personTrip from="133885749#3" to="-77348147" modes="public"/>
    </person>
    <person id="ped12" depart="31.02" type="ped_pedestrian">
        <personTrip from="915958599#2" to="133885744#1" modes="public"/>
    </person>
    <person id="ped13" depart="33.60" type="ped_pedestrian">
        <personTrip from="-28251222#1" to="-330840134#2" modes="public"/>
    </person>
    <person id="ped14" depart="36.19" type="ped_pedestrian">
        <personTrip from="687623781#2" to="335703510" modes="public"/>
    </person>
    <person id="ped15" depart="38.77" type="ped_pedestrian">
        <personTrip from="561049082" to="46517262#2" modes="public"/>
    </person>
    <person id="ped16" depart="41.36" type="ped_pedestrian">
        <personTrip from="274513542" to="915958619" modes="public"/>
    </person>
    <person id="ped17" depart="43.94" type="ped_pedestrian">
        <personTrip from="169195164" to="274524377#1" modes="public"/>
    </person>
    <person id="ped18" depart="46.53" type="ped_pedestrian">
        <personTrip from="589906053#1" to="339201239#2" modes="public"/>
    </person>
    <person id="ped19" depart="49.11" type="ped_pedestrian">
        <personTrip from="688445661" to="304517627#2" modes="public"/>
    </person>
    <person id="ped20" depart="51.70" type="ped_pedestrian">
        <personTrip from="437500509" to="-16873017#1" modes="public"/>
    </person>
    <person id="ped21" depart="54.28" type="ped_pedestrian">
        <personTrip from="1085398477#2" to="1114798610#0" modes="public"/>
    </person>
    <person id="ped22" depart="56.86" type="ped_pedestrian">
        <personTrip from="-229531161#0" to="1087301090#0" modes="public"/>
    </person>
    <person id="ped23" depart="59.45" type="ped_pedestrian">
        <personTrip from="-340498976#0" to="1097921391" modes="public"/>
    </person>
    <person id="ped24" depart="62.03" type="ped_pedestrian">
        <personTrip from="372802936#0" to="15971189" modes="public"/>
    </person>
    <person id="ped25" depart="64.62" type="ped_pedestrian">
        <personTrip from="164874309#1" to="1071210926#1" modes="public"/>
    </person>
    <person id="ped26" depart="67.20" type="ped_pedestrian">
        <personTrip from="1097921376#2" to="882671343" modes="public"/>
    </person>
    <person id="ped27" depart="69.79" type="ped_pedestrian">
        <personTrip from="377110615" to="339201177#1" modes="public"/>
    </person>
    <person id="ped28" depart="72.37" type="ped_pedestrian">
        <personTrip from="100950875#1" to="46517262#1" modes="public"/>
    </person>
    <person id="ped29" depart="74.96" type="ped_pedestrian">
        <personTrip from="-972461860" to="170062886" modes="public"/>
    </person>
    <person id="ped30" depart="77.54" type="ped_pedestrian">
        <personTrip from="955768000" to="375901776#0" modes="public"/>
    </person>
    <person id="ped31" depart="80.13" type="ped_pedestrian">
        <personTrip from="275008387#1" to="43185669#0" modes="public"/>
    </person>
    <person id="ped32" depart="82.71" type="ped_pedestrian">
        <personTrip from="645533910#1" to="51167565" modes="public"/>
    </person>
    <person id="ped33" depart="85.30" type="ped_pedestrian">
        <personTrip from="1085398477#4" to="-133885743#0" modes="public"/>
    </person>
    <person id="ped34" depart="87.88" type="ped_pedestrian">
        <personTrip from="1124928841#9" to="1097921378" modes="public"/>
    </person>
    <person id="ped35" depart="90.47" type="ped_pedestrian">
        <personTrip from="1071210926#4" to="899946808" modes="public"/>
    </person>
    <person id="ped36" depart="93.05" type="ped_pedestrian">
        <personTrip from="729397317" to="1124928841#8" modes="public"/>
    </person>
    <person id="ped37" depart="95.64" type="ped_pedestrian">
        <personTrip from="38211708#1" to="171423002#3" modes="public"/>
    </person>
    <person id="ped38" depart="98.22" type="ped_pedestrian">
        <personTrip from="881245043#2" to="202157029#3" modes="public"/>
    </person>
    <person id="ped39" depart="100.81" type="ped_pedestrian">
        <personTrip from="1094398062" to="1087301111#1" modes="public"/>
    </person>
    <person id="ped40" depart="103.39" type="ped_pedestrian">
        <personTrip from="280007140#2" to="1089020536#1" modes="public"/>
    </person>
    <person id="ped41" depart="105.97" type="ped_pedestrian">
        <personTrip from="316301061" to="803199198#2" modes="public"/>
    </person>
    <person id="ped42" depart="108.56" type="ped_pedestrian">
        <personTrip from="171494871#1" to="1077812501" modes="public"/>
    </person>
    <person id="ped43" depart="111.14" type="ped_pedestrian">
        <personTrip from="974193168" to="254339569" modes="public"/>
    </person>
    <person id="ped44" depart="113.73" type="ped_pedestrian">
        <personTrip from="-25945967#0" to="-168940071#1" modes="public"/>
    </person>
    <person id="ped45" depart="116.31" type="ped_pedestrian">
        <personTrip from="-387892378" to="34848160#4" modes="public"/>
    </person>
    <person id="ped46" depart="118.90" type="ped_pedestrian">
        <personTrip from="541295978#0" to="181587284#1" modes="public"/>
    </person>
    <person id="ped47" depart="121.48" type="ped_pedestrian">
        <personTrip from="-194962998#2" to="170098545#3" modes="public"/>
    </person>
    <person id="ped48" depart="124.07" type="ped_pedestrian">
        <personTrip from="974193166#2" to="260138641#2" modes="public"/>
    </person>
    <person id="ped49" depart="126.65" type="ped_pedestrian">
        <personTrip from="915958615#2" to="687966675#0" modes="public"/>
    </person>
    <person id="ped50" depart="129.24" type="ped_pedestrian">
        <personTrip from="-1110526068" to="4611693#0" modes="public"/>
    </person>
    <person id="ped51" depart="131.82" type="ped_pedestrian">
        <personTrip from="428486925" to="274513545" modes="public"/>
    </person>
    <person id="ped52" depart="134.41" type="ped_pedestrian">
        <personTrip from="1097921376#1" to="375901776#2" modes="public"/>
    </person>
    <person id="ped53" depart="136.99" type="ped_pedestrian">
        <personTrip from="-410310755#6" to="194962998#0" modes="public"/>
    </person>
    <person id="ped54" depart="139.58" type="ped_pedestrian">
        <personTrip from="202157024#1" to="915958587#4" modes="public"/>
    </person>
    <person id="ped55" depart="142.16" type="ped_pedestrian">
        <personTrip from="72260323" to="1091249702#0" modes="public"/>
    </person>
    <person id="ped56" depart="144.75" type="ped_pedestrian">
        <personTrip from="23852051" to="1037130735#0" modes="public"/>
    </person>
    <person id="ped57" depart="147.33" type="ped_pedestrian">
        <personTrip from="881245041" to="70163730" modes="public"/>
    </person>
    <person id="ped58" depart="149.92" type="ped_pedestrian">
        <personTrip from="1121012037#1" to="375901769#1" modes="public"/>
    </person>
    <person id="ped59" depart="152.50" type="ped_pedestrian">
        <personTrip from="339201177#1" to="-711640736#1" modes="public"/>
    </person>
    <person id="ped60" depart="155.09" type="ped_pedestrian">
        <personTrip from="4840977#1" to="274513558" modes="public"/>
    </person>
    <person id="ped61" depart="157.67" type="ped_pedestrian">
        <personTrip from="51167927#1" to="260138644" modes="public"/>
    </person>
    <person id="ped62" depart="160.25" type="ped_pedestrian">
        <personTrip from="-100950875#1" to="114667396#0" modes="public"/>
    </person>
    <person id="ped63" depart="162.84" type="ped_pedestrian">
        <personTrip from="-1124925108" to="882389487" modes="public"/>
    </person>
    <person id="ped64" depart="165.42" type="ped_pedestrian">
        <personTrip from="729659097" to="603204007#0" modes="public"/>
    </person>
    <person id="ped65" depart="168.01" type="ped_pedestrian">
        <personTrip from="1124928836#1" to="-194073678#0" modes="public"/>
    </person>
    <person id="ped66" depart="170.59" type="ped_pedestrian">
        <personTrip from="729659096" to="906672303#0" modes="public"/>
    </person>
    <person id="ped67" depart="173.18" type="ped_pedestrian">
        <personTrip from="-234463931#0" to="23121445#5" modes="public"/>
    </person>
    <person id="ped68" depart="175.76" type="ped_pedestrian">
        <personTrip from="-202157003#0" to="4840974#0" modes="public"/>
    </person>
    <person id="ped69" depart="178.35" type="ped_pedestrian">
        <personTrip from="492027392#1" to="-51167562#3" modes="public"/>
    </person>
    <person id="ped70" depart="180.93" type="ped_pedestrian">
        <personTrip from="229531162#0" to="274524370" modes="public"/>
    </person>
    <person id="ped71" depart="183.52" type="ped_pedestrian">
        <personTrip from="1094398062" to="708628328" modes="public"/>
    </person>
    <person id="ped72" depart="186.10" type="ped_pedestrian">
        <personTrip from="181587285" to="1071210926#5" modes="public"/>
    </person>
    <person id="ped73" depart="188.69" type="ped_pedestrian">
        <personTrip from="274513558" to="46517262#2" modes="public"/>
    </person>
    <person id="ped74" depart="191.27" type="ped_pedestrian">
        <personTrip from="1051150935" to="1124928841#2" modes="public"/>
    </person>
    <person id="ped75" depart="193.86" type="ped_pedestrian">
        <personTrip from="974193166#0" to="377110621#2" modes="public"/>
    </person>
    <person id="ped76" depart="196.44" type="ped_pedestrian">
        <personTrip from="195397561#3" to="254523894" modes="public"/>
    </person>
    <person id="ped77" depart="199.03" type="ped_pedestrian">
        <personTrip from="-4610527" to="1085398474" modes="public"/>
    </person>
    <person id="ped78" depart="201.61" type="ped_pedestrian">
        <personTrip from="133885746#1" to="327518240" modes="public"/>
    </person>
    <person id="ped79" depart="204.20" type="ped_pedestrian">
        <personTrip from="1085398477#6" to="1079045023#0" modes="public"/>
    </person>
    <person id="ped80" depart="206.78" type="ped_pedestrian">
        <personTrip from="-202157018#2" to="35578576#3" modes="public"/>
    </person>
    <person id="ped81" depart="209.36" type="ped_pedestrian">
        <personTrip from="1085398477#4" to="82168039" modes="public"/>
    </person>
    <person id="ped82" depart="211.95" type="ped_pedestrian">
        <personTrip from="687804456#4" to="-202157018#2" modes="public"/>
    </person>
    <person id="ped83" depart="214.53" type="ped_pedestrian">
        <personTrip from="1087301103#1" to="422000253#1" modes="public"/>
    </person>
    <person id="ped84" depart="217.12" type="ped_pedestrian">
        <personTrip from="1071210929#2" to="-51167934#3" modes="public"/>
    </person>
    <person id="ped85" depart="219.70" type="ped_pedestrian">
        <personTrip from="882389499#4" to="284514068" modes="public"/>
    </person>
    <person id="ped86" depart="222.29" type="ped_pedestrian">
        <personTrip from="228484735" to="51167934#3" modes="public"/>
    </person>
    <person id="ped87" depart="224.87" type="ped_pedestrian">
        <personTrip from="561049082" to="1037153019#1" modes="public"/>
    </person>
    <person id="ped88" depart="227.46" type="ped_pedestrian">
        <personTrip from="-330840134#2" to="194177683" modes="public"/>
    </person>
    <person id="ped89" depart="230.04" type="ped_pedestrian">
        <personTrip from="181587286#0" to="205728152#2" modes="public"/>
    </person>
    <person id="ped90" depart="232.63" type="ped_pedestrian">
        <personTrip from="46517262#1" to="424344283" modes="public"/>
    </person>
    <person id="ped91" depart="235.21" type="ped_pedestrian">
        <personTrip from="942234132" to="-339201177#1" modes="public"/>
    </person>
    <person id="ped92" depart="237.80" type="ped_pedestrian">
        <personTrip from="171494871#7" to="133885749#2" modes="public"/>
    </person>
    <person id="ped93" depart="240.38" type="ped_pedestrian">
        <personTrip from="688445661" to="1088540759#0" modes="public"/>
    </person>
    <person id="ped94" depart="242.97" type="ped_pedestrian">
        <personTrip from="1037153017" to="202157017" modes="public"/>
    </person>
    <person id="ped95" depart="245.55" type="ped_pedestrian">
        <personTrip from="181587284#0" to="1100900061" modes="public"/>
    </person>
    <person id="ped96" depart="248.14" type="ped_pedestrian">
        <personTrip from="1088718161" to="881527239#8" modes="public"/>
    </person>
    <person id="ped97" depart="250.72" type="ped_pedestrian">
        <personTrip from="202156999" to="687966675#1" modes="public"/>
    </person>
    <person id="ped98" depart="253.31" type="ped_pedestrian">
        <personTrip from="274524372" to="-169067264#3" modes="public"/>
    </person>
    <person id="ped99" depart="255.89" type="ped_pedestrian">
        <personTrip from="998298001#0" to="61584187#1" modes="public"/>
    </person>
    <person id="ped100" depart="258.48" type="ped_pedestrian">
        <personTrip from="915958611#3" to="882389482" modes="public"/>
    </person>
    <person id="ped101" depart="261.06" type="ped_pedestrian">
        <personTrip from="687623781#4" to="1000864517#2" modes="public"/>
    </person>
    <person id="ped102" depart="263.64" type="ped_pedestrian">
        <personTrip from="23121445#5" to="1071210929#1" modes="public"/>
    </person>
    <person id="ped103" depart="266.23" type="ped_pedestrian">
        <personTrip from="171494871#4" to="-194073678#1" modes="public"/>
    </person>
    <person id="ped104" depart="268.81" type="ped_pedestrian">
        <personTrip from="169999355#1" to="942234133#1" modes="public"/>
    </person>
    <person id="ped105" depart="271.40" type="ped_pedestrian">
        <personTrip from="1094398062" to="51167934#2" modes="public"/>
    </person>
    <person id="ped106" depart="273.98" type="ped_pedestrian">
        <personTrip from="202157026#1" to="181587285" modes="public"/>
    </person>
    <person id="ped107" depart="276.57" type="ped_pedestrian">
        <personTrip from="915958599#2" to="974193166#1" modes="public"/>
    </person>
    <person id="ped108" depart="279.15" type="ped_pedestrian">
        <personTrip from="274524386" to="4610526" modes="public"/>
    </person>
    <person id="ped109" depart="281.74" type="ped_pedestrian">
        <personTrip from="-751595929#2" to="1120378081" modes="public"/>
    </person>
    <person id="ped110" depart="284.32" type="ped_pedestrian">
        <personTrip from="915958611#3" to="312392973" modes="public"/>
    </person>
    <person id="ped111" depart="286.91" type="ped_pedestrian">
        <personTrip from="274513566#0" to="4773024#1" modes="public"/>
    </person>
    <person id="ped112" depart="289.49" type="ped_pedestrian">
        <personTrip from="-194073677#4" to="316301061" modes="public"/>
    </person>
    <person id="ped113" depart="292.08" type="ped_pedestrian">
        <personTrip from="24243092#2" to="687787219" modes="public"/>
    </person>
    <person id="ped114" depart="294.66" type="ped_pedestrian">
        <personTrip from="-796446835#2" to="915958601#3" modes="public"/>
    </person>
    <person id="ped115" depart="297.25" type="ped_pedestrian">
        <personTrip from="-229531161#0" to="1037136887#0" modes="public"/>
    </person>
    <person id="ped116" depart="299.83" type="ped_pedestrian">
        <personTrip from="335043657" to="424344292" modes="public"/>
    </person>
    <person id="ped117" depart="302.42" type="ped_pedestrian">
        <personTrip from="1087301100#1" to="-4610480" modes="public"/>
    </person>
    <person id="ped118" depart="305.00" type="ped_pedestrian">
        <personTrip from="780334232#0" to="1087301110" modes="public"/>
    </person>
    <person id="ped119" depart="307.59" type="ped_pedestrian">
        <personTrip from="33207312#1" to="339201239#4" modes="public"/>
    </person>
    <person id="ped120" depart="310.17" type="ped_pedestrian">
        <personTrip from="175885747#5" to="31609479" modes="public"/>
    </person>
    <person id="ped121" depart="312.75" type="ped_pedestrian">
        <personTrip from="254523912#0" to="882389499#2" modes="public"/>
    </person>
    <person id="ped122" depart="315.34" type="ped_pedestrian">
        <personTrip from="1055731559#0" to="4610480" modes="public"/>
    </person>
    <person id="ped123" depart="317.92" type="ped_pedestrian">
        <personTrip from="1087301105#1" to="171423002#3" modes="public"/>
    </person>
    <person id="ped124" depart="320.51" type="ped_pedestrian">
        <personTrip from="423857556#0" to="1124918891#0" modes="public"/>
    </person>
    <person id="ped125" depart="323.09" type="ped_pedestrian">
        <personTrip from="1124934333#0" to="478396988" modes="public"/>
    </person>
    <person id="ped126" depart="325.68" type="ped_pedestrian">
        <personTrip from="-202157026#0" to="202157029#1" modes="public"/>
    </person>
    <person id="ped127" depart="328.26" type="ped_pedestrian">
        <personTrip from="996068961" to="974193166#2" modes="public"/>
    </person>
    <person id="ped128" depart="330.85" type="ped_pedestrian">
        <personTrip from="-202157026#1" to="1071210927#1" modes="public"/>
    </person>
    <person id="ped129" depart="333.43" type="ped_pedestrian">
        <personTrip from="1094398062" to="882389498" modes="public"/>
    </person>
    <person id="ped130" depart="336.02" type="ped_pedestrian">
        <personTrip from="744493889" to="742216171" modes="public"/>
    </person>
    <person id="ped131" depart="338.60" type="ped_pedestrian">
        <personTrip from="164874309#0" to="-796446835#2" modes="public"/>
    </person>
    <person id="ped132" depart="341.19" type="ped_pedestrian">
        <personTrip from="606078065" to="437500507" modes="public"/>
    </person>
    <person id="ped133" depart="343.77" type="ped_pedestrian">
        <personTrip from="339201192#0" to="942234137" modes="public"/>
    </person>
    <person id="ped134" depart="346.36" type="ped_pedestrian">
        <personTrip from="38208961" to="-1101961674#1" modes="public"/>
    </person>
    <person id="ped135" depart="348.94" type="ped_pedestrian">
        <personTrip from="569067828" to="1123105979#1" modes="public"/>
    </person>
    <person id="ped136" depart="351.53" type="ped_pedestrian">
        <personTrip from="397579546" to="883691541#1" modes="public"/>
    </person>
    <person id="ped137" depart="354.11" type="ped_pedestrian">
        <personTrip from="-51234181" to="-4412868" modes="public"/>
    </person>
    <person id="ped138" depart="356.70" type="ped_pedestrian">
        <personTrip from="-35578576#4" to="274524379#0" modes="public"/>
    </person>
    <person id="ped139" depart="359.28" type="ped_pedestrian">
        <personTrip from="1097921385#3" to="335703511#1" modes="public"/>
    </person>
    <person id="ped140" depart="361.87" type="ped_pedestrian">
        <personTrip from="4610525#2" to="1055731557" modes="public"/>
    </person>
    <person id="ped141" depart="364.45" type="ped_pedestrian">
        <personTrip from="372616653#2" to="1091249702#1" modes="public"/>
    </person>
    <person id="ped142" depart="367.03" type="ped_pedestrian">
        <personTrip from="234463933" to="82168039" modes="public"/>
    </person>
    <person id="ped143" depart="369.62" type="ped_pedestrian">
        <personTrip from="666482961" to="-28251222#1" modes="public"/>
    </person>
    <person id="ped144" depart="372.20" type="ped_pedestrian">
        <personTrip from="181587286#0" to="1097921390#2" modes="public"/>
    </person>
    <person id="ped145" depart="374.79" type="ped_pedestrian">
        <personTrip from="-104991251" to="51167561#3" modes="public"/>
    </person>
    <person id="ped146" depart="377.37" type="ped_pedestrian">
        <personTrip from="372802938" to="1088831087#3" modes="public"/>
    </person>
    <person id="ped147" depart="379.96" type="ped_pedestrian">
        <personTrip from="474362272" to="274524377#1" modes="public"/>
    </person>
    <person id="ped148" depart="382.54" type="ped_pedestrian">
        <personTrip from="194069450#0" to="-1102369940#0" modes="public"/>
    </person>
    <person id="ped149" depart="385.13" type="ped_pedestrian">
        <personTrip from="-202157031#2" to="751595929#1" modes="public"/>
    </person>
    <person id="ped150" depart="387.71" type="ped_pedestrian">
        <personTrip from="803471194#2" to="274513581#1" modes="public"/>
    </person>
    <person id="ped151" depart="390.30" type="ped_pedestrian">
        <personTrip from="606078068#2" to="312392974#5" modes="public"/>
    </person>
    <person id="ped152" depart="392.88" type="ped_pedestrian">
        <personTrip from="-645533910#0" to="-51167562#2" modes="public"/>
    </person>
    <person id="ped153" depart="395.47" type="ped_pedestrian">
        <personTrip from="1124928836#2" to="803471188#0" modes="public"/>
    </person>
    <person id="ped154" depart="398.05" type="ped_pedestrian">
        <personTrip from="553121565" to="687966675#0" modes="public"/>
    </person>
    <person id="ped155" depart="400.64" type="ped_pedestrian">
        <personTrip from="803471188#0" to="1071210926#2" modes="public"/>
    </person>
    <person id="ped156" depart="403.22" type="ped_pedestrian">
        <personTrip from="1088540759#1" to="-340498976#8" modes="public"/>
    </person>
    <person id="ped157" depart="405.81" type="ped_pedestrian">
        <personTrip from="51167928#1" to="757944648" modes="public"/>
    </person>
    <person id="ped158" depart="408.39" type="ped_pedestrian">
        <personTrip from="171826986#4" to="339201248" modes="public"/>
    </person>
    <person id="ped159" depart="410.98" type="ped_pedestrian">
        <personTrip from="-751595928#1" to="882389489" modes="public"/>
    </person>
    <person id="ped160" depart="413.56" type="ped_pedestrian">
        <personTrip from="688445665#0" to="915958621#3" modes="public"/>
    </person>
    <person id="ped161" depart="416.14" type="ped_pedestrian">
        <personTrip from="564139999#2" to="744493890" modes="public"/>
    </person>
    <person id="ped162" depart="418.73" type="ped_pedestrian">
        <personTrip from="-114667396#0" to="465376258#1" modes="public"/>
    </person>
    <person id="ped163" depart="421.31" type="ped_pedestrian">
        <personTrip from="132460630" to="882389491" modes="public"/>
    </person>
    <person id="ped164" depart="423.90" type="ped_pedestrian">
        <personTrip from="557076768" to="688445662#3" modes="public"/>
    </person>
    <person id="ped165" depart="426.48" type="ped_pedestrian">
        <personTrip from="564139999#2" to="1097921376#1" modes="public"/>
    </person>
    <person id="ped166" depart="429.07" type="ped_pedestrian">
        <personTrip from="51236794" to="-377215961#0" modes="public"/>
    </person>
    <person id="ped167" depart="431.65" type="ped_pedestrian">
        <personTrip from="708628328" to="687804456#2" modes="public"/>
    </person>
    <person id="ped168" depart="434.24" type="ped_pedestrian">
        <personTrip from="1079045034#0" to="569067826" modes="public"/>
    </person>
    <person id="ped169" depart="436.82" type="ped_pedestrian">
        <personTrip from="202157031#1" to="1124918892#4" modes="public"/>
    </person>
    <person id="ped170" depart="439.41" type="ped_pedestrian">
        <personTrip from="553121560" to="1085398477#2" modes="public"/>
    </person>
    <person id="ped171" depart="441.99" type="ped_pedestrian">
        <personTrip from="-1126615454#0" to="104581979#0" modes="public"/>
    </person>
    <person id="ped172" depart="444.58" type="ped_pedestrian">
        <personTrip from="121717657#1" to="688445665#0" modes="public"/>
    </person>
    <person id="ped173" depart="447.16" type="ped_pedestrian">
        <personTrip from="915958610#8" to="1101961674#1" modes="public"/>
    </person>
    <person id="ped174" depart="449.75" type="ped_pedestrian">
        <personTrip from="375901776#3" to="171494871#2" modes="public"/>
    </person>
    <person id="ped175" depart="452.33" type="ped_pedestrian">
        <personTrip from="924828182#0" to="274513542" modes="public"/>
    </person>
    <person id="ped176" depart="454.92" type="ped_pedestrian">
        <personTrip from="883691541#2" to="-43231842#1" modes="public"/>
    </person>
    <person id="ped177" depart="457.50" type="ped_pedestrian">
        <personTrip from="915958615#1" to="1037130735#0" modes="public"/>
    </person>
    <person id="ped178" depart="460.09" type="ped_pedestrian">
        <personTrip from="915958610#0" to="1097921375" modes="public"/>
    </person>
    <person id="ped179" depart="462.67" type="ped_pedestrian">
        <personTrip from="-377215961#0" to="194962375#2" modes="public"/>
    </person>
    <person id="ped180" depart="465.26" type="ped_pedestrian">
        <personTrip from="46517262#0" to="1124928841#6" modes="public"/>
    </person>
    <person id="ped181" depart="467.84" type="ped_pedestrian">
        <personTrip from="335703513#1" to="254341208" modes="public"/>
    </person>
    <person id="ped182" depart="470.42" type="ped_pedestrian">
        <personTrip from="170370361#1" to="304514893#9" modes="public"/>
    </person>
    <person id="ped183" depart="473.01" type="ped_pedestrian">
        <personTrip from="1088748335#9" to="442389818#3" modes="public"/>
    </person>
    <person id="ped184" depart="475.59" type="ped_pedestrian">
        <personTrip from="-1029477075#0" to="882389481" modes="public"/>
    </person>
    <person id="ped185" depart="478.18" type="ped_pedestrian">
        <personTrip from="274513551" to="4610527" modes="public"/>
    </person>
    <person id="ped186" depart="480.76" type="ped_pedestrian">
        <personTrip from="475297457#0" to="422002325" modes="public"/>
    </person>
    <person id="ped187" depart="483.35" type="ped_pedestrian">
        <personTrip from="15968749#3" to="-202157018#0" modes="public"/>
    </person>
    <person id="ped188" depart="485.93" type="ped_pedestrian">
        <personTrip from="398295306" to="122820534#1" modes="public"/>
    </person>
    <person id="ped189" depart="488.52" type="ped_pedestrian">
        <personTrip from="1124928841#6" to="687623781#3" modes="public"/>
    </person>
    <person id="ped190" depart="491.10" type="ped_pedestrian">
        <personTrip from="4610599" to="1124918891#0" modes="public"/>
    </person>
    <person id="ped191" depart="493.69" type="ped_pedestrian">
        <personTrip from="1124928840#1" to="171826987#2" modes="public"/>
    </person>
    <person id="ped192" depart="496.27" type="ped_pedestrian">
        <personTrip from="171494871#7" to="1120378080#1" modes="public"/>
    </person>
    <person id="ped193" depart="498.86" type="ped_pedestrian">
        <personTrip from="-51167562#1" to="181587281" modes="public"/>
    </person>
    <person id="ped194" depart="501.44" type="ped_pedestrian">
        <personTrip from="883691541#4" to="424344305" modes="public"/>
    </person>