<?xml version="1.0" encoding="UTF-8"?>

<!-- generated on 2023-01-03 12:48:11 by Eclipse SUMO netconvert Version 1.15.0
<configuration xmlns:xsi="http://www.w3.org/2001/XMLSchema-instance" xsi:noNamespaceSchemaLocation="http://sumo.dlr.de/xsd/netconvertConfiguration.xsd">

    <input>
        <type-files value="${SUMO_HOME}/data/typemap/osmNetconvert.typ.xml,${SUMO_HOME}/data/typemap/osmNetconvertUrbanDe.typ.xml,${SUMO_HOME}/data/typemap/osmNetconvertPedestrians.typ.xml,${SUMO_HOME}/data/typemap/osmNetconvertShips.typ.xml,${SUMO_HOME}/data/typemap/osmNetconvertBicycle.typ.xml,${SUMO_HOME}/data/typemap/osmNetconvertAerialway.typ.xml"/>
        <osm-files value="osm_bbox.osm.xml.gz"/>
    </input>

    <output>
        <output-file value="osm.net.xml.gz"/>
        <output.street-names value="true"/>
        <output.original-names value="true"/>
        <ptstop-output value="osm_stops.add.xml"/>
        <ptline-output value="osm_ptlines.xml"/>
    </output>

    <projection>
        <proj.utm value="true"/>
    </projection>

    <processing>
        <geometry.remove value="true"/>
        <roundabouts.guess value="true"/>
    </processing>

    <tls_building>
        <tls.discard-simple value="true"/>
        <tls.join value="true"/>
        <tls.guess-signals value="true"/>
        <tls.default-type value="actuated"/>
    </tls_building>

    <ramp_guessing>
        <ramps.guess value="true"/>
    </ramp_guessing>

    <junctions>
        <junctions.join value="true"/>
        <junctions.corner-detail value="5"/>
    </junctions>

    <pedestrian>
        <crossings.guess value="true"/>
    </pedestrian>

    <railway>
        <railway.topology.repair value="true"/>
    </railway>

    <formats>
        <osm.bike-access value="true"/>
        <osm.sidewalks value="true"/>
    </formats>

    <report>
        <verbose value="true"/>
    </report>

</configuration>
-->

<additional xmlns:xsi="http://www.w3.org/2001/XMLSchema-instance" xsi:noNamespaceSchemaLocation="http://sumo.dlr.de/xsd/additional_file.xsd">
    <busStop id="-9561454679" name="Ormeaux" lane="-243167820#5_1" startPos="16.64" endPos="31.64" friendlyPos="true" lines="C2"/>
    <busStop id="10022228306" name="Richelieu" lane="884899260#0_2" startPos="0.00" endPos="15.00" friendlyPos="true"/>
    <busStop id="10022284435" name="George V" lane="242316872#0_1" startPos="12.51" endPos="27.51" friendlyPos="true"/>
    <busStop id="10028126265" name="Porte Océane" lane="71966041#3_0" startPos="28.94" endPos="43.94" friendlyPos="true">
        <access lane="-113586691_0" pos="19.24" length="34.46" friendlyPos="1"/>
        <access lane="-202291587#13_0" pos="23.99" length="25.34" friendlyPos="1"/>
        <access lane="113586691_0" pos="23.70" length="39.26" friendlyPos="1"/>
        <access lane="202291587#13_0" pos="19.47" length="28.34" friendlyPos="1"/>
        <access lane="71966038#0_0" pos="0.00" length="34.54" friendlyPos="1"/>
    </busStop>
    <busStop id="10028128819" name="Samuel de Champlain" lane="264822929_1" startPos="21.30" endPos="36.30" friendlyPos="true"/>
    <busStop id="10028143671" name="La Plage" lane="72096422#5_0" startPos="9.26" endPos="24.26" friendlyPos="true">
        <access lane="1099644113_0" pos="3.38" length="17.22" friendlyPos="1"/>
        <access lane="1099644119_0" pos="6.98" length="10.57" friendlyPos="1"/>
        <access lane="295063043#4_0" pos="19.63" length="24.72" friendlyPos="1"/>
        <access lane="533161970#0_0" pos="0.00" length="20.33" friendlyPos="1"/>
        <access lane="533161970#1_0" pos="0.00" length="24.28" friendlyPos="1"/>
    </busStop>
    <busStop id="10028145527" name="Saint Joseph" lane="71966041#10_0" startPos="5.48" endPos="20.48" friendlyPos="true">
        <access lane="-202291587#5_0" pos="13.03" length="23.77" friendlyPos="1"/>
        <access lane="-202291587#6_0" pos="0.20" length="34.24" friendlyPos="1"/>
        <access lane="-72049940#1_0" pos="0.00" length="24.37" friendlyPos="1"/>
        <access lane="202291587#5_0" pos="60.20" length="26.77" friendlyPos="1"/>
        <access lane="876239478#1_0" pos="0.00" length="32.12" friendlyPos="1"/>
    </busStop>
    <busStop id="10028160519" name="Les Halles" lane="533327242#6_0" startPos="0.01" endPos="15.01" friendlyPos="true">
        <access lane="-178348882_0" pos="0.00" length="17.45" friendlyPos="1"/>
        <access lane="-178348883#4_0" pos="22.66" length="32.30" friendlyPos="1"/>
        <access lane="178348882_0" pos="10.47" length="21.91" friendlyPos="1"/>
        <access lane="178348883#3_0" pos="50.93" length="37.47" friendlyPos="1"/>
        <access lane="178348883#4_0" pos="7.57" length="27.50" friendlyPos="1"/>
    </busStop>
    <busStop id="10028180447" name="Ingouville" lane="197335659#2_1" startPos="2.49" endPos="17.49" friendlyPos="true"/>
    <busStop id="10031759026" name="Ingouville" lane="197335659#2_1" startPos="0.00" endPos="15.00" friendlyPos="true" lines="1 3"/>
    <busStop id="10031782368" name="Augustin Normand" lane="653203984#1_0" startPos="17.51" endPos="32.51" friendlyPos="true">
        <access lane="-202291587#3_0" pos="24.88" length="10.49" friendlyPos="1"/>
        <access lane="-60900286_0" pos="19.52" length="44.33" friendlyPos="1"/>
        <access lane="202291587#3_0" pos="24.92" length="13.49" friendlyPos="1"/>
        <access lane="60900286_0" pos="46.00" length="39.53" friendlyPos="1"/>
        <access lane="876097394#0_0" pos="0.20" length="41.86" friendlyPos="1"/>
    </busStop>
    <busStop id="10031811034" name="Les Halles" lane="542424891#5_1" startPos="4.58" endPos="19.58" friendlyPos="true"/>
    <busStop id="10031817482" name="Saint Joseph" lane="197335672#5_0" startPos="8.74" endPos="23.74" friendlyPos="true">
        <access lane="-202291587#11_0" pos="63.65" length="10.74" friendlyPos="1"/>
        <access lane="-202291587#8_0" pos="0.00" length="50.82" friendlyPos="1"/>
        <access lane="113586690_0" pos="71.88" length="47.99" friendlyPos="1"/>
        <access lane="202291587#11_0" pos="16.24" length="13.74" friendlyPos="1"/>
        <access lane="304001570#2_0" pos="123.58" length="49.66" friendlyPos="1"/>
    </busStop>
    <busStop id="10031827661" name="La Plage" lane="533127465#0_0" startPos="0.00" endPos="13.85" friendlyPos="true">
        <access lane="1099644113_0" pos="0.00" length="21.25" friendlyPos="1"/>
        <access lane="1099644119_0" pos="2.74" length="25.27" friendlyPos="1"/>
        <access lane="295063043#4_0" pos="17.12" length="19.20" friendlyPos="1"/>
        <access lane="533127464#0_0" pos="0.00" length="21.77" friendlyPos="1"/>
        <access lane="533161970#0_0" pos="0.00" length="28.43" friendlyPos="1"/>
    </busStop>
    <busStop id="10036708067" name="Palais de Justice" lane="263478933#5_1" startPos="27.56" endPos="42.56" friendlyPos="true"/>
    <busStop id="10036729607" name="Hôtel de Ville" lane="201845690#1_0" startPos="9.77" endPos="24.77" friendlyPos="true"/>
    <busStop id="10036735590" name="Sous-Préfecture" lane="209977258#3_2" startPos="23.53" endPos="38.53" friendlyPos="true"/>
    <busStop id="10036736698" name="Gal Sarrail" lane="263478933#0_1" startPos="138.52" endPos="153.52" friendlyPos="true"/>
    <busStop id="10068208759" lane="209977258#5_2" startPos="48.62" endPos="63.62" friendlyPos="true"/>
    <busStop id="10068239615" name="Sous-Préfecture" lane="209977258#2_2" startPos="55.00" endPos="70.00" friendlyPos="true"/>
    <busStop id="10068241858" name="Pont Vauban" lane="884890355#0_0" startPos="26.57" endPos="41.57" friendlyPos="true">
        <access lane="-12149919#5_0" pos="0.00" length="77.69" friendlyPos="1"/>
        <access lane="-532379541#0_0" pos="12.43" length="78.21" friendlyPos="1"/>
        <access lane="-630761073#0_0" pos="64.38" length="83.01" friendlyPos="1"/>
        <access lane="-660949184#1_0" pos="60.26" length="82.86" friendlyPos="1"/>
        <access lane="660949184#1_0" pos="19.06" length="78.06" friendlyPos="1"/>
    </busStop>
    <busStop id="113352933" name="Place Thiers" lane="880255678#0_1" startPos="1.07" endPos="16.07" friendlyPos="true"/>
    <busStop id="1575694296" name="La Plage" lane="303674884#2_0" startPos="24.94" endPos="49.94" friendlyPos="true" lines="A B">
        <access lane="-304002314#0_0" pos="37.42" length="13.71" friendlyPos="1"/>
        <access lane="1099644120#2_0" pos="1.30" length="32.37" friendlyPos="1"/>
        <access lane="1099644121_0" pos="0.00" length="31.20" friendlyPos="1"/>
        <access lane="304002314#0_0" pos="12.96" length="26.31" friendlyPos="1"/>
        <access lane="384171952#7_0" pos="18.93" length="24.72" friendlyPos="1"/>
    </busStop>
    <busStop id="2014094277" name="Hôtel de Ville" lane="537761430#2_0" startPos="24.35" endPos="49.35" friendlyPos="true">
        <access lane="-629093691#2_0" pos="14.72" length="15.93" friendlyPos="1"/>
        <access lane="-74525639#3_0" pos="5.40" length="15.78" friendlyPos="1"/>
        <access lane="629093691#0_0" pos="1.10" length="15.28" friendlyPos="1"/>
        <access lane="629093691#2_0" pos="0.00" length="13.11" friendlyPos="1"/>
        <access lane="74525639#3_0" pos="40.88" length="14.28" friendlyPos="1"/>
    </busStop>
    <busStop id="2014094904" name="Saint Roch" lane="264565627#10_0" startPos="30.14" endPos="55.14" friendlyPos="true">
        <access lane="-1121866933#1_0" pos="42.68" length="30.71" friendlyPos="1"/>
        <access lane="1121866932#1_0" pos="0.20" length="31.65" friendlyPos="1"/>
        <access lane="1121866933#1_0" pos="6.85" length="27.71" friendlyPos="1"/>
        <access lane="533129507#0_0" pos="0.88" length="27.29" friendlyPos="1"/>
        <access lane="533129507#2_0" pos="0.00" length="26.23" friendlyPos="1"/>
    </busStop>
    <busStop id="2014101625" name="Palais de Justice" lane="537761434#17_0" startPos="27.03" endPos="52.03" friendlyPos="true">
        <access lane="-22812333#0_0" pos="53.46" length="33.79" friendlyPos="1"/>
        <access lane="22812333#0_0" pos="0.00" length="45.61" friendlyPos="1"/>
        <access lane="5008797#5_0" pos="64.59" length="47.49" friendlyPos="1"/>
        <access lane="738906162#0_0" pos="0.24" length="27.02" friendlyPos="1"/>
        <access lane="738906162#2_0" pos="0.00" length="26.00" friendlyPos="1"/>
    </busStop>
    <busStop id="2014101703" name="Gares" lane="537761434#19_0" startPos="408.32" endPos="433.32" friendlyPos="true">
        <access lane="-263478933#0_0" pos="211.44" length="127.55" friendlyPos="1"/>
        <access lane="263478933#0_0" pos="0.00" length="128.79" friendlyPos="1"/>
    </busStop>
    <busStop id="2068674704" name="Gares" lane="575295082#0_0" startPos="918.62" endPos="943.62" friendlyPos="true">
        <access lane="-263478933#0_0" pos="211.44" length="118.47" friendlyPos="1"/>
        <access lane="263478933#0_0" pos="0.00" length="123.43" friendlyPos="1"/>
    </busStop>
    <busStop id="2068674713" name="Hôtel de Ville" lane="537761428#3_0" startPos="18.65" endPos="43.65" friendlyPos="true">
        <access lane="-74525639#3_0" pos="31.05" length="11.23" friendlyPos="1"/>
        <access lane="199291196#0_0" pos="14.85" length="32.34" friendlyPos="1"/>
        <access lane="199291196#2_0" pos="1.67" length="29.96" friendlyPos="1"/>
        <access lane="199291196#3_0" pos="0.00" length="30.21" friendlyPos="1"/>
        <access lane="74525639#3_0" pos="15.23" length="9.73" friendlyPos="1"/>
    </busStop>
    <busStop id="2068674720" name="La Plage" lane="537772767#17_0" startPos="30.31" endPos="55.31" friendlyPos="true">
        <access lane="-304002314#0_0" pos="13.56" length="8.95" friendlyPos="1"/>
        <access lane="1099644123#0_0" pos="0.23" length="26.48" friendlyPos="1"/>
        <access lane="1099644123#2_0" pos="0.00" length="24.60" friendlyPos="1"/>
        <access lane="304002314#0_0" pos="36.89" length="21.55" friendlyPos="1"/>
        <access lane="518890180#0_0" pos="0.00" length="35.44" friendlyPos="1"/>
    </busStop>
    <busStop id="2068674727" name="Palais de Justice" lane="575295082#2_0" startPos="27.39" endPos="52.39" friendlyPos="true">
        <access lane="-22812333#0_0" pos="53.46" length="21.83" friendlyPos="1"/>
        <access lane="-738906160_0" pos="64.19" length="25.94" friendlyPos="1"/>
        <access lane="22812333#0_0" pos="0.00" length="21.47" friendlyPos="1"/>
        <access lane="738906159#0_0" pos="0.10" length="25.33" friendlyPos="1"/>
        <access lane="738906160_0" pos="0.00" length="22.12" friendlyPos="1"/>
    </busStop>
    <busStop id="2068674747" name="Rond-Point" lane="575295082#0_0" startPos="65.99" endPos="90.99" friendlyPos="true" lines="A"/>
    <busStop id="2068674754" name="Saint Roch" lane="537772767#7_0" startPos="28.44" endPos="53.44" friendlyPos="true">
        <access lane="1121866933#1_0" pos="33.21" length="32.14" friendlyPos="1"/>
        <access lane="533127464#6_0" pos="16.05" length="27.54" friendlyPos="1"/>
        <access lane="876088069#0_0" pos="0.41" length="30.13" friendlyPos="1"/>
        <access lane="876088069#2_0" pos="0.00" length="28.56" friendlyPos="1"/>
        <access lane="876088072_0" pos="0.00" length="31.82" friendlyPos="1"/>
    </busStop>
    <busStop id="2068674763" name="Université" lane="575295082#0_0" startPos="450.12" endPos="475.12" friendlyPos="true"/>
    <busStop id="2076200229" name="Hôtel de Ville" lane="263478255#0_0" startPos="17.53" endPos="32.53" friendlyPos="true">
        <access lane="-243165761#0_0" pos="0.00" length="38.27" friendlyPos="1"/>
        <access lane="1121867672_0" pos="0.00" length="34.68" friendlyPos="1"/>
        <access lane="201845690#1_0" pos="12.01" length="13.51" friendlyPos="1"/>
        <access lane="243165761#0_0" pos="7.55" length="34.98" friendlyPos="1"/>
        <access lane="5002662#0_0" pos="0.00" length="40.19" friendlyPos="1"/>
    </busStop>
    <busStop id="2323330805" name="Hôtel de Ville" lane="843217893#0_0" startPos="29.57" endPos="44.57" friendlyPos="true">
        <access lane="-533954048_0" pos="42.62" length="45.23" friendlyPos="1"/>
        <access lane="-819978579_0" pos="0.00" length="29.23" friendlyPos="1"/>
        <access lane="209977258#0_0" pos="0.00" length="41.07" friendlyPos="1"/>
        <access lane="263478257_0" pos="11.32" length="12.30" friendlyPos="1"/>
        <access lane="819978579_0" pos="16.15" length="26.54" friendlyPos="1"/>
    </busStop>
    <busStop id="847609239" name="René Coty" lane="987933713_1" startPos="19.00" endPos="34.00" friendlyPos="true"/>
    <busStop id="8602711481" name="René Coty" lane="230154508#0_1" startPos="0.00" endPos="4.15" friendlyPos="true"/>
    <busStop id="9557478321" name="Richelieu" lane="884899260#0_2" startPos="0.00" endPos="15.00" friendlyPos="true" lines="C2"/>
    <busStop id="9557513344" name="George V" lane="242316872#0_1" startPos="38.39" endPos="53.39" friendlyPos="true"/>
    <busStop id="9557521401" name="Hôpital Flaubert" lane="1033551663#0_1" startPos="59.19" endPos="74.19" friendlyPos="true"/>
    <busStop id="9557525308" name="Ormeaux" lane="243167820#5_1" startPos="30.44" endPos="45.44" friendlyPos="true"/>
    <busStop id="9563404173" name="Hôpital Flaubert" lane="243167820#1_1" startPos="5.63" endPos="20.63" friendlyPos="true"/>
    <busStop id="9563408103" name="Hôtel de Ville" lane="263478257_0" startPos="0.00" endPos="15.00" friendlyPos="true"/>
    <busStop id="9563412358" name="Place Thiers" lane="41601195#2_0" startPos="121.31" endPos="136.31" friendlyPos="true">
        <access lane="-74248296_0" pos="21.02" length="76.61" friendlyPos="1"/>
        <access lane="71600024_0" pos="52.14" length="75.09" friendlyPos="1"/>
        <access lane="74248296_0" pos="100.47" length="71.81" friendlyPos="1"/>
        <access lane="87747592_0" pos="0.00" length="52.74" friendlyPos="1"/>
        <access lane="880255678#0_0" pos="35.10" length="91.61" friendlyPos="1"/>
    </busStop>
</additional>
